LAMMPS (22 Jun 2018)
# 2d LJ crack simulation

dimension	2
boundary	s s p

atom_style	atomic
neighbor	0.3 bin
neigh_modify	delay 5

# create geometry

lattice		hex 0.93
Lattice spacing in x,y,z = 1.11428 1.92998 1.11428
region		box block 0 100 0 40 -0.25 0.25
create_box	5 box
Created orthogonal box = (0 0 -0.278569) to (111.428 77.1994 0.278569)
create_atoms	1 box
Created 8141 atoms
  Time spent = 0.00101018 secs

mass		1 1.0
mass		2 1.0
mass		3 1.0
mass		4 1.0
mass		5 1.0

# LJ potentials

pair_style	lj/cut 2.5
pair_coeff	* * 1.0 1.0 2.5

# define groups

region	        1 block INF INF INF 1.25 INF INF
group		lower region 1
302 atoms in group lower
region		2 block INF INF 38.75 INF INF INF
group		upper region 2
302 atoms in group upper
group		boundary union lower upper
604 atoms in group boundary
group		mobile subtract all boundary
7537 atoms in group mobile

region		leftupper block INF 20 20 INF INF INF
region		leftlower block INF 20 INF 20 INF INF
group		leftupper region leftupper
841 atoms in group leftupper
group		leftlower region leftlower
841 atoms in group leftlower

set		group leftupper type 2
  841 settings made for type
set		group leftlower type 3
  841 settings made for type
set		group lower type 4
  302 settings made for type
set		group upper type 5
  302 settings made for type

# initial velocities

compute	  	new mobile temp
velocity	mobile create 0.01 887723 temp new
velocity	upper set 0.0 0.3 0.0
velocity	mobile ramp vy 0.0 0.3 y 1.25 38.75 sum yes

# fixes

fix		1 all nve
fix		2 boundary setforce NULL 0.0 0.0

# run

timestep	0.003
thermo		100
thermo_style custom step time temp pxx pyy cpuremain

neigh_modify	exclude type 2 3

run	5000
  update every 1 steps, delay 5 steps, check yes
Step Time Temp Pxx Pyy CPULeft
0            0  0.066999022  -0.08406601  0.023352245            0
Averages over the last 26 of 51 rows, steps 2500 to 5000:
Temp Pxx Pyy
0.0854267 0.160374 -2.40941
Loop time of 4.65965 on 1 procs for 5000 steps with 8141 atoms

thermo_style custom step time temp pxx pyy press cpuremain

run 5000
Step Time Temp Pxx Pyy Press CPULeft
5000           15  0.090608908   0.18837991   -2.2175412   -1.0145806            0
Averages over the last 26 of 51 rows, steps 7500 to 10000:
Temp Pxx Pyy Press
0.17435 0.118926 -0.293575 -0.0873244
Loop time of 4.74984 on 1 procs for 5000 steps with 8141 atoms

thermo_style custom step temp pxx pyy cpuremain

run 400
Step Temp Pxx Pyy CPULeft
10000   0.17731223   0.19351318  -0.14231342            0
Loop time of 0.369093 on 1 procs for 400 steps with 8141 atoms
